           6

O        0.3567936690         0.2327626689         0.7321026692
H       -0.0264583313         1.1097856694         0.7321026692
H        1.3081236695         0.3879946690         0.7321026692
O        3.2584256705         0.4587516690         0.7321026692
H        3.5881986707        -0.0264583313        -0.0264583313
H        3.5881986707        -0.0264583313         1.4906636696
