          41

C        5.9133050341         9.1185879105         7.1232170704
C        7.4279244398         7.4745417602         6.5657956810
H       10.1063097619         4.4413712040         4.3769181748
C        6.9443839376         6.0918569519         9.1935673777
C        8.2150658731         9.7281864813         7.0324630063
H        5.9429612623         2.1971088888         4.5709441343
C        3.4224695197         4.1785045314         7.8542878058
C       10.0086550306         6.8067593947         5.6302411545
C        6.9805197939         6.5909394311        10.4823693794
C        3.3985862344         4.9326943560         8.9875399915
C        8.9565032160         5.8439847103         5.5633186602
H        4.8698071174         9.4006340791         7.2651207289
C        8.5030362166         8.4121592369         6.6208333780
H        7.8696171520         6.0403175958         8.6282117798
H        3.7273911017         6.1267752069        11.3507581072
C        6.7628838431         5.0282893849         6.3377813432
H       10.6173837333         8.7498301640         6.2632690805
C        5.8283153261         3.0109222946         5.2819110157
C        4.6365017085         6.1266838815        10.7498431237
H        6.6587062293        11.0947933952         7.6260238639
C        4.5877787893         4.1296173327         7.0315701525
C        5.7503236427         5.5947806822         8.6189617868
H        2.5085882034         4.9708617186         9.6099451020
C        4.5846401339         5.5777214242         9.4468908189
H        9.0220335816        10.4525377718         7.1039646966
H        5.8273597813         7.0439784985        12.2739199449
C        6.9057661345         3.9197232612         5.4512976825
C        5.6951117431         4.9755534346         7.3085239138
H       10.9874474862         6.5439727601         5.2355176898
H        7.9262924715         6.9400845271        10.8963571362
C        7.7095999367         6.1027736765         6.1966411394
C        9.1464135365         4.6256751699         4.8561287005
H        8.2231404382         2.8450492641         4.1126216893
C        5.8118390105         6.6299634828        11.2672614601
C        4.6611446512         3.1828231888         5.9717907801
H        2.5594591620         3.5837967526         7.5589905291
C        6.9144182058        10.0874771663         7.3054780972
N        6.1424760571         7.8583244650         6.7804820809
C        8.1188155252         3.7327581594         4.7339383150
C        9.8083495990         8.0270143465         6.2008200496
H        3.8093111277         2.5283960140         5.7983740121
