         125

Ag        0.0000000000         0.0000000000         3.4812142500 
Ag        0.0000000000        -0.0000000000        10.4436427500 
Ta        0.0000000000         0.0000000000         0.0000000000 
Ta        0.0000000000        -0.0000000000         6.9624285000 
O        0.3242009303         1.6071430000         8.1228332500 
O       -0.3242009303        -1.6071430000         5.8020237500 
O       -1.5539269651        -0.5228052250         8.1228332500 
O        1.5539269651         0.5228052250         5.8020237500 
O        1.2297260349        -1.0843377750         8.1228332500 
O       -1.2297260349         1.0843377750         5.8020237500 
Xn        1.4912426786         0.5165816786         6.4651121786 
Xn       -1.4912426786        -0.5165816786         7.4597448214 
Xn       -1.1929941429         1.0331633571         6.4651121786 
Xn        1.1929941429        -1.0331633571         7.4597448214 
Xn       -0.2982485357        -1.5497450357         6.4651121786 
Xn        0.2982485357         1.5497450357         7.4597448214 
Xn       -0.2982485357        -1.6645409643         5.1389353214 
Xn        0.2982485357         1.6645409643         8.7859216786 
Xn       -1.2924103214         1.0905613214         5.1389353214 
Xn        1.2924103214        -1.0905613214         8.7859216786 
Xn        1.5906588571         0.5739796429         5.1389353214 
Xn       -1.5906588571        -0.5739796429         8.7859216786 
Xn        0.9941617857        -0.8035715000         8.6201495714 
Xn       -0.9941617857         0.8035715000         5.3047074286 
Xn        0.1988323571         1.2627552143         8.6201495714 
Xn       -0.1988323571        -1.2627552143         5.3047074286 
Xn       -1.1929941429        -0.4591837143         8.6201495714 
Xn        1.1929941429         0.4591837143         5.3047074286 
Xn        1.5906588571        -1.1479592857         7.6255169286 
Xn       -1.5906588571         1.1479592857         6.2993400714 
Xn       -1.7894912143        -0.8035715000         7.6255169286 
Xn        1.7894912143         0.8035715000         6.2993400714 
Xn        0.1988323571         1.9515307857         7.6255169286 
Xn       -0.1988323571        -1.9515307857         6.2993400714 
Xn       -1.0935779643        -0.7461735357         7.7912890357 
Xn        1.0935779643         0.7461735357         6.1335679643 
Xn        1.1929941429        -0.5739796429         7.7912890357 
Xn       -1.1929941429         0.5739796429         6.1335679643 
Xn       -0.0994161786         1.3201531786         7.7912890357 
Xn        0.0994161786        -1.3201531786         6.1335679643 
Xn       -0.0994161786         1.8941328214         8.4543774643 
Xn        0.0994161786        -1.8941328214         5.4704795357 
Xn        1.6900750357        -0.8609694643         8.4543774643 
Xn       -1.6900750357         0.8609694643         5.4704795357 
Xn       -1.5906588571        -1.0331633571         8.4543774643 
Xn        1.5906588571         1.0331633571         5.4704795357 
Xn       -1.7894912143         1.1479592857         5.8020237500 
Xn        1.7894912143        -1.1479592857         8.1228332500 
Xn       -0.0994161786        -2.1237246786         5.8020237500 
Xn        0.0994161786         2.1237246786         8.1228332500 
Xn        1.8889073929         0.9757653929         5.8020237500 
Xn       -1.8889073929        -0.9757653929         8.1228332500 
Xn       -0.8947456071         0.6313776071         5.8020237500 
Xn        0.8947456071        -0.6313776071         8.1228332500 
Xn        0.9941617857         0.4591837143         5.8020237500 
Xn       -0.9941617857        -0.4591837143         8.1228332500 
Xn       -0.0994161786        -1.0905613214         5.8020237500 
Xn        0.0994161786         1.0905613214         8.1228332500 
Xn        0.3976647143         2.1811226429         8.2886053571 
Xn       -0.3976647143        -2.1811226429         5.6362516429 
Xn       -2.0877397500        -0.7461735357         8.2886053571 
Xn        2.0877397500         0.7461735357         5.6362516429 
Xn        1.6900750357        -1.4349491071         8.2886053571 
Xn       -1.6900750357         1.4349491071         5.6362516429 
Xn       -1.0935779643        -0.1721938929         7.9570611429 
Xn        1.0935779643         0.1721938929         5.9677958571 
Xn        0.3976647143         1.0331633571         7.9570611429 
Xn       -0.3976647143        -1.0331633571         5.9677958571 
Xn        0.6959132500        -0.8609694643         7.9570611429 
Xn       -0.6959132500         0.8609694643         5.9677958571 
Xn       -1.5906588571         1.1479592857         5.3047074286 
Xn        1.5906588571        -1.1479592857         8.6201495714 
Xn       -0.1988323571        -1.9515307857         5.3047074286 
Xn        0.1988323571         1.9515307857         8.6201495714 
Xn        1.7894912143         0.8035715000         5.3047074286 
Xn       -1.7894912143        -0.8035715000         8.6201495714 
Xn       -0.9941617857         0.8035715000         6.2993400714 
Xn        0.9941617857        -0.8035715000         7.6255169286 
Xn        1.1929941429         0.4591837143         6.2993400714 
Xn       -1.1929941429        -0.4591837143         7.6255169286 
Xn       -0.1988323571        -1.2627552143         6.2993400714 
Xn        0.1988323571         1.2627552143         7.6255169286 
Xn       -0.0000000000         1.1479592857         8.2886053571 
Xn        0.0000000000        -1.1479592857         5.6362516429 
Xn       -0.9941617857        -0.5739796429         8.2886053571 
Xn        0.9941617857         0.5739796429         5.6362516429 
Xn        0.9941617857        -0.5739796429         8.2886053571 
Xn       -0.9941617857         0.5739796429         5.6362516429 
Xn       -1.7894912143        -1.0331633571         7.9570611429 
Xn        1.7894912143         1.0331633571         5.9677958571 
Xn        0.0000000000         2.0663267143         7.9570611429 
Xn       -0.0000000000        -2.0663267143         5.9677958571 
Xn        1.7894912143        -1.0331633571         7.9570611429 
Xn       -1.7894912143         1.0331633571         5.9677958571 
Xn       -0.6959132500         1.3201531786         5.8020237500 
Xn        0.6959132500        -1.3201531786         8.1228332500 
Xn       -0.7953294286        -1.2627552143         5.8020237500 
Xn        0.7953294286         1.2627552143         8.1228332500 
Xn        1.4912426786        -0.0573979643         5.8020237500 
Xn       -1.4912426786         0.0573979643         8.1228332500 
Xn       -1.2924103214         1.6645409643         5.8020237500 
Xn        1.2924103214        -1.6645409643         8.1228332500 
Xn        2.0877397500         0.2869898214         5.8020237500 
Xn       -2.0877397500        -0.2869898214         8.1228332500 
Xn       -0.7953294286        -1.9515307857         5.8020237500 
Xn        0.7953294286         1.9515307857         8.1228332500 
Xn       -1.6900750357         0.0573979643         8.1228332500 
Xn        1.6900750357        -0.0573979643         5.8020237500 
Xn        0.7953294286        -1.4923470714         8.1228332500 
Xn       -0.7953294286         1.4923470714         5.8020237500 
Xn        0.8947456071         1.4349491071         8.1228332500 
Xn       -0.8947456071        -1.4349491071         5.8020237500 
Xn        0.8947456071         1.7793368929         8.1228332500 
Xn       -0.8947456071        -1.7793368929         5.8020237500 
Xn        1.0935779643        -1.6645409643         8.1228332500 
Xn       -1.0935779643         1.6645409643         5.8020237500 
Xn       -1.9883235714        -0.1147959286         8.1228332500 
Xn        1.9883235714         0.1147959286         5.8020237500 
Ta        0.0000000000        -3.2142860000         4.6416190000 
Ta       -2.7836530000         1.6071430000         4.6416190000 
Ta       -2.7836530000        -1.6071430000         9.2832380000 
Ta        2.7836530000         1.6071430000         4.6416190000 
Ta        2.7836530000        -1.6071430000         9.2832380000 
Ta        0.0000000000         3.2142860000         9.2832380000 
Ta        0.0000000000         0.0000000000        13.9248570000 
