         125

Mg        0.0000000000         0.0000000000         0.0000000000
Mg        0.0000000000         2.1055000000         2.1055000000
Mg        2.1055000000         0.0000000000         2.1055000000
Mg        2.1055000000         2.1055000000         0.0000000000
O        2.1055000000         2.1055000000         2.1055000000
O        2.1055000000         0.0000000000         0.0000000000
O        0.0000000000         2.1055000000         0.0000000000
O        0.0000000000         0.0000000000         2.1055000000
Mg        0.0000000000         0.0000000000         4.2110000000
Mg        0.0000000000         2.1055000000         6.3165000000
Mg        2.1055000000         0.0000000000         6.3165000000
Mg        2.1055000000         2.1055000000         4.2110000000
O        2.1055000000         2.1055000000         6.3165000000
O        2.1055000000         0.0000000000         4.2110000000
O        0.0000000000         2.1055000000         4.2110000000
O        0.0000000000         0.0000000000         6.3165000000
Mg        0.0000000000         4.2110000000         0.0000000000
Mg        0.0000000000         6.3165000000         2.1055000000
Mg        2.1055000000         4.2110000000         2.1055000000
Mg        2.1055000000         6.3165000000         0.0000000000
O        2.1055000000         6.3165000000         2.1055000000
O        2.1055000000         4.2110000000         0.0000000000
O        0.0000000000         6.3165000000         0.0000000000
O        0.0000000000         4.2110000000         2.1055000000
Mg        0.0000000000         4.2110000000         4.2110000000
Mg        0.0000000000         6.3165000000         6.3165000000
Mg        2.1055000000         4.2110000000         6.3165000000
Mg        2.1055000000         6.3165000000         4.2110000000
O        2.1055000000         6.3165000000         6.3165000000
O        2.1055000000         4.2110000000         4.2110000000
O        0.0000000000         6.3165000000         4.2110000000
O        0.0000000000         4.2110000000         6.3165000000
Mg        4.2110000000         0.0000000000         0.0000000000
Mg        4.2110000000         2.1055000000         2.1055000000
Mg        6.3165000000         0.0000000000         2.1055000000
Mg        6.3165000000         2.1055000000         0.0000000000
O        6.3165000000         2.1055000000         2.1055000000
O        6.3165000000         0.0000000000         0.0000000000
O        4.2110000000         2.1055000000         0.0000000000
O        4.2110000000         0.0000000000         2.1055000000
Mg        4.2110000000         0.0000000000         4.2110000000
Mg        4.2110000000         2.1055000000         6.3165000000
Mg        6.3165000000         0.0000000000         6.3165000000
Mg        6.3165000000         2.1055000000         4.2110000000
O        6.3165000000         2.1055000000         6.3165000000
O        6.3165000000         0.0000000000         4.2110000000
O        4.2110000000         2.1055000000         4.2110000000
O        4.2110000000         0.0000000000         6.3165000000
Mg        4.2110000000         4.2110000000         0.0000000000
Mg        4.2110000000         6.3165000000         2.1055000000
Mg        6.3165000000         4.2110000000         2.1055000000
Mg        6.3165000000         6.3165000000         0.0000000000
O        6.3165000000         6.3165000000         2.1055000000
O        6.3165000000         4.2110000000         0.0000000000
O        4.2110000000         6.3165000000         0.0000000000
O        4.2110000000         4.2110000000         2.1055000000
Mg        4.2110000000         4.2110000000         4.2110000000
Mg        4.2110000000         6.3165000000         6.3165000000
Mg        6.3165000000         4.2110000000         6.3165000000
Mg        6.3165000000         6.3165000000         4.2110000000
O        6.3165000000         6.3165000000         6.3165000000
O        6.3165000000         4.2110000000         4.2110000000
O        4.2110000000         6.3165000000         4.2110000000
O        4.2110000000         4.2110000000         6.3165000000
Mg        0.0000000000         0.0000000000         8.4220000000
Mg        2.1055000000         2.1055000000         8.4220000000
O        2.1055000000         0.0000000000         8.4220000000
O        0.0000000000         2.1055000000         8.4220000000
Mg        0.0000000000         4.2110000000         8.4220000000
Mg        2.1055000000         6.3165000000         8.4220000000
O        2.1055000000         4.2110000000         8.4220000000
O        0.0000000000         6.3165000000         8.4220000000
Mg        0.0000000000         8.4220000000         0.0000000000
Mg        2.1055000000         8.4220000000         2.1055000000
O        2.1055000000         8.4220000000         0.0000000000
O        0.0000000000         8.4220000000         2.1055000000
Mg        0.0000000000         8.4220000000         4.2110000000
Mg        2.1055000000         8.4220000000         6.3165000000
O        2.1055000000         8.4220000000         4.2110000000
O        0.0000000000         8.4220000000         6.3165000000
Mg        0.0000000000         8.4220000000         8.4220000000
O        2.1055000000         8.4220000000         8.4220000000
Mg        4.2110000000         0.0000000000         8.4220000000
Mg        6.3165000000         2.1055000000         8.4220000000
O        6.3165000000         0.0000000000         8.4220000000
O        4.2110000000         2.1055000000         8.4220000000
Mg        4.2110000000         4.2110000000         8.4220000000
Mg        6.3165000000         6.3165000000         8.4220000000
O        6.3165000000         4.2110000000         8.4220000000
O        4.2110000000         6.3165000000         8.4220000000
Mg        4.2110000000         8.4220000000         0.0000000000
Mg        6.3165000000         8.4220000000         2.1055000000
O        6.3165000000         8.4220000000         0.0000000000
O        4.2110000000         8.4220000000         2.1055000000
Mg        4.2110000000         8.4220000000         4.2110000000
Mg        6.3165000000         8.4220000000         6.3165000000
O        6.3165000000         8.4220000000         4.2110000000
O        4.2110000000         8.4220000000         6.3165000000
Mg        4.2110000000         8.4220000000         8.4220000000
O        6.3165000000         8.4220000000         8.4220000000
Mg        8.4220000000         0.0000000000         0.0000000000
Mg        8.4220000000         2.1055000000         2.1055000000
O        8.4220000000         2.1055000000         0.0000000000
O        8.4220000000         0.0000000000         2.1055000000
Mg        8.4220000000         0.0000000000         4.2110000000
Mg        8.4220000000         2.1055000000         6.3165000000
O        8.4220000000         2.1055000000         4.2110000000
O        8.4220000000         0.0000000000         6.3165000000
Mg        8.4220000000         0.0000000000         8.4220000000
O        8.4220000000         2.1055000000         8.4220000000
Mg        8.4220000000         4.2110000000         0.0000000000
Mg        8.4220000000         6.3165000000         2.1055000000
O        8.4220000000         6.3165000000         0.0000000000
O        8.4220000000         4.2110000000         2.1055000000
Mg        8.4220000000         4.2110000000         4.2110000000
Mg        8.4220000000         6.3165000000         6.3165000000
O        8.4220000000         6.3165000000         4.2110000000
O        8.4220000000         4.2110000000         6.3165000000
Mg        8.4220000000         4.2110000000         8.4220000000
O        8.4220000000         6.3165000000         8.4220000000
Mg        8.4220000000         8.4220000000         0.0000000000
O        8.4220000000         8.4220000000         2.1055000000
Mg        8.4220000000         8.4220000000         4.2110000000
O        8.4220000000         8.4220000000         6.3165000000
Mg        8.4220000000         8.4220000000         8.4220000000
