          16

C        0.0000000000         2.7825000000         1.5269840000 
N       -0.8119335000         1.9705665000         0.8271944000 
O        0.0000000000         2.7825000000         2.7883852000 
N        0.8119335000         3.5944335000         0.8271944000 
H       -0.8019165000         1.9805835000        -0.1779920000 
H       -1.4329875000         1.3495125000         1.3241668000 
H        0.8019165000         3.5844165000        -0.1779920000 
H        1.4329875000         4.2154875000         1.3241668000 
H        3.5844165000         4.7630835000         0.1779920000 
N        3.5944335000         4.7530665000        -0.8271944000 
H        4.2154875000         4.1320125000        -1.3241668000 
C        2.7825000000         5.5650000000        -1.5269840000 
N        1.9705665000         6.3769335000        -0.8271944000 
O        2.7825000000         5.5650000000        -2.7883852000 
H        1.3495125000         6.9979875000        -1.3241668000 
H        1.9805835000         6.3669165000         0.1779920000 
